Mason's Sims/PTI/PSSE35/EXAMPLE/sample.rawx
{
    "general":{"version":"35.4"}, 
    "network":{
        "caseid":{
            "fields":["ic", "sbase", "rev", "xfrrat", "nxfrat", "basfrq", "title1", "title2"], 
            "data":[0, 100.0000, 35, 0, 1, 60.00000, "PSS(R)E SAMPLE CASE - ALL RECORD GROUPS WITH SEQ DATA", "NO NODE BREAKERS, NO ZERO IMPEDANCE LINES"]
        }, 
        "general":{
            "fields":["thrshz", "pqbrak", "blowup", "maxisollvls", "camaxreptsln", "chkdupcntlbl"], 
            "data":[0.1000000E-03, 0.7000000, 5.000000, 4, 20, 0]
        }, 
        "gauss":{
            "fields":["itmx", "accp", "accq", "accm", "tol"], 
            "data":[100, 1.600000, 1.600000, 1.000000, 0.1000000E-03]
        }, 
        "newton":{
            "fields":["itmxn", "accn", "toln", "vctolq", "vctolv", "dvlim", "ndvfct"], 
            "data":[100, 1.000000, 0.1000000, 0.1000000, 0.1000000E-04, 0.9900000, 0.9900000]
        }, 
        "adjust":{
            "fields":["adjthr", "acctap", "taplim", "swvbnd", "mxtpss", "mxswim"], 
            "data":[0.5000000E-02, 1.000000, 0, 100.0000, 99, 10]
        }, 
        "tysl":{
            "fields":["itmxty", "accty", "tolty"], 
            "data":[20, 1.000000, 0.1000000E-04]
        }, 
        "solver":{
            "fields":["method", "actaps", "areain", "phshft", "dctaps", "swshnt", "flatst", "varlim", "nondiv"], 
            "data":["FDNS", null, null, null, null, null, null]
        }, 
        "rating":{
            "fields":["irate", "name", "desc"], 
            "data":[
                [1, "CRCUS1", "Circus-Fibrous or threadlike"], 
                [2, "CRSTR2", "Cirrostrarus-Milky, translucent"], 
                [3, "CRCUM3", "Cirrocumulus-small, white flakes"], 
                [4, "ALTCU4", "Altocumulus-bundles or rollers"], 
                [5, "ALTST5", "Altostratus-dense, gray layer"], 
                [6, "STRTO6", "Stratocumulus-plaices or rollers"], 
                [7, "STRTS7", "Stratus-Evenly grey, low layer"], 
                [8, "CMULS8", "Cumulus-Heap with flat basis"], 
                [9, "CMULO9", "Cumulonimbus-thunder, up-rises"], 
                [10, "NIBS10", "Nimbostratus-rain,grey, dark"], 
                [11, "CPLL11", "capillatus-haired, frayed"], 
                [12, "NBUL12", "nebulosus-fog, veil-like"]
            ]
        }, 
        "bus":{
            "fields":["ibus", "name", "baskv", "ide", "area", "zone", "owner", "vm", "va", "nvhi", "nvlo", "evhi", "evlo"], 
            "data":[
                [101, "NUC-A", 21.60000, 2, 1, 1, 1, 1.010000, -15.95810, 1.100000, 0.9000000, 1.100000, 0.9000000], 
                [102, "NUC-B", 21.60000, 2, 1, 1, 1, 1.010000, -16.31170, 1.100000, 0.9000000, 1.100000, 0.9000000], 
                [151, "NUCPLNT", 500.0000, 1, 1, 1, 1, 0.9993300, -19.10500, 1.100000, 0.9000000, 1.100000, 0.9000000], 
                [152, "MID500", 500.0000, 1, 1, 2, 1, 1.044020, -26.77110, 1.100000, 0.9000000, 1.100000, 0.9000000], 
                [153, "MID230", 230.0000, 1, 1, 3, 1, 1.057460, -28.40370, 1.100000, 0.9000000, 1.100000, 0.9000000], 
                [154, "DOWNTN", 230.0000, 1, 1, 3, 1, 0.9931200, -33.77200, 1.100000, 0.9000000, 1.100000, 0.9000000], 
                [155, "FACTS TE", 230.0000, 1, 1, 4, 1, 1.018510, -24.94420, 1.100000, 0.9000000, 1.100000, 0.9000000], 
                [201, "HYDRO", 500.0000, 1, 2, 7, 2, 0.9993300, -19.10500, 1.100000, 0.9000000, 1.100000, 0.9000000], 
                [202, "EAST500", 500.0000, 1, 2, 2, 2, 1.023270, -27.83440, 1.100000, 0.9000000, 1.100000, 0.9000000], 
                [203, "EAST230", 230.0000, 1, 2, 8, 2, 1.000000, -31.03980, 1.100000, 0.9000000, 1.100000, 0.9000000], 
                [204, "SUB500", 500.0000, 1, 2, 8, 2, 1.030970, -31.85950, 1.100000, 0.9000000, 1.100000, 0.9000000], 
                [205, "SUB230", 230.0000, 1, 2, 8, 2, 1.000000, -34.25660, 1.100000, 0.9000000, 1.100000, 0.9000000], 
                [206, "URBGEN", 18.00000, 2, 2, 8, 2, 1.000000, -31.80170, 1.100000, 0.9000000, 1.100000, 0.9000000], 
                [207, "DUPONT", 500.0000, 1, 2, 7, 2, 1.018420, -25.63630, 1.100000, 0.9000000, 1.100000, 0.9000000], 
                [208, "URBANEAST208", 230.0000, 4, 2, 8, 2, 1.000000, -31.52460, 1.100000, 0.9000000, 1.100000, 0.9000000], 
                [209, "URBANEAST209", 230.0000, 4, 2, 8, 2, 1.000000, -31.52460, 1.100000, 0.9000000, 1.100000, 0.9000000], 
                [211, "HYDRO_G", 20.00000, 2, 2, 7, 2, 1.000000, -14.48260, 1.100000, 0.9000000, 1.100000, 0.9000000], 
                [212, "INVERT1", 230.0000, 1, 2, 7, 2, 1.026950, -32.63300, 1.100000, 0.9000000, 1.100000, 0.9000000], 
                [213, "INVERT2", 230.0000, 1, 2, 7, 2, 1.106770, -35.89870, 1.100000, 0.9000000, 1.100000, 0.9000000], 
                [214, "LOADER", 230.0000, 1, 2, 7, 2, 1.077260, -37.32860, 1.100000, 0.9000000, 1.100000, 0.9000000], 
                [215, "URBANEAST215", 18.00000, 1, 2, 8, 2, 0.9181700, -34.19080, 1.100000, 0.9000000, 1.100000, 0.9000000], 
                [216, "URBANEAST216", 230.0000, 1, 2, 8, 2, 0.9963700, -34.23350, 1.100000, 0.9000000, 1.100000, 0.9000000], 
                [217, "URBANEAST217", 230.0000, 1, 2, 8, 2, 0.9973300, -34.23970, 1.100000, 0.9000000, 1.100000, 0.9000000], 
                [218, "URBANEAST218", 230.0000, 1, 2, 8, 2, 0.9976900, -34.24190, 1.100000, 0.9000000, 1.100000, 0.9000000], 
                [301, "NORTH", 765.0000, 3, 3, 5, 3, 1.000000, 0.000000, 1.100000, 0.9000000, 1.100000, 0.9000000], 
                [401, "COGEN-1", 500.0000, 3, 4, 9, 4, 1.000000, 0.000000, 1.100000, 0.9000000, 1.100000, 0.9000000], 
                [402, "COGEN-2", 500.0000, 3, 6, 9, 4, 1.000000, 0.000000, 1.100000, 0.9000000, 1.100000, 0.9000000], 
                [3001, "MINE", 230.0000, 1, 5, 6, 5, 0.9927200, -12.12490, 1.100000, 0.9000000, 1.100000, 0.9000000], 
                [3002, "E. MINE", 500.0000, 1, 5, 6, 5, 0.9931800, -10.36000, 1.100000, 0.9000000, 1.100000, 0.9000000], 
                [3003, "S. MINE", 230.0000, 1, 5, 6, 5, 0.9921700, -11.68210, 1.100000, 0.9000000, 1.100000, 0.9000000], 
                [3004, "WEST", 500.0000, 1, 5, 6, 5, 1.012690, -22.35000, 1.100000, 0.9000000, 1.100000, 0.9000000], 
                [3005, "WEST", 230.0000, 1, 5, 2, 5, 0.9994700, -22.94640, 1.100000, 0.9000000, 1.100000, 0.9000000], 
                [3006, "UPTOWN", 230.0000, 1, 5, 4, 5, 1.057460, -28.40370, 1.100000, 0.9000000, 1.100000, 0.9000000], 
                [3007, "RURAL", 230.0000, 1, 5, 4, 5, 0.9819700, -26.33910, 1.100000, 0.9000000, 1.100000, 0.9000000], 
                [3008, "CATDOG", 230.0000, 1, 5, 4, 5, 0.9900000, -26.93790, 1.100000, 0.9000000, 1.100000, 0.9000000], 
                [3009, "URBNWEST3009", 230.0000, 1, 5, 4, 5, 0.9904800, -26.95750, 1.100000, 0.9000000, 1.100000, 0.9000000], 
                [3010, "INDMOTOR1", 21.60000, 1, 5, 4, 5, 0.9639000, -0.1939000, 1.100000, 0.9000000, 1.100000, 0.9000000], 
                [3011, "MINE_G", 19.40000, 3, 5, 6, 5, 1.000000, 0.000000, 1.100000, 0.9000000, 1.100000, 0.9000000], 
                [3012, "URBNWEST3012", 230.0000, 4, 5, 4, 5, 0.9904800, 0.000000, 1.100000, 0.9000000, 1.100000, 0.9000000], 
                [3018, "CATDOG_G", 13.80000, 2, 5, 4, 5, 0.9900000, -23.16790, 1.100000, 0.9000000, 1.100000, 0.9000000], 
                [3021, "WDUM", 18.00000, 1, 3, 5, 3, 1.000000, -23.28010, 1.100000, 0.9000000, 1.100000, 0.9000000], 
                [3022, "EDUM", 18.00000, 1, 3, 5, 3, 1.000000, -22.59120, 1.100000, 0.9000000, 1.100000, 0.9000000], 
                [9154, "INDGEN1", 4.160000, 1, 1, 3, 1, 0.9860700, -33.09020, 1.100000, 0.9000000, 1.100000, 0.9000000], 
                [9204, "INDMOTOR2", 0.5750000, 1, 2, 8, 2, 0.9815300, -35.54540, 1.100000, 0.9000000, 1.100000, 0.9000000], 
                [70202, "EAST-MOV", 500.0000, 1, 2, 2, 2, 1.020660, -27.96580, 1.100000, 0.9000000, 1.100000, 0.9000000], 
                [93002, "INDGEN2", 0.6900000, 1, 5, 6, 5, 0.9551000, -4.252200, 1.100000, 0.9000000, 1.100000, 0.9000000], 
                [703003, "S. MINE-MOV", 230.0000, 1, 5, 6, 5, 0.9992800, -15.64420, 1.100000, 0.9000000, 1.100000, 0.9000000], 
                [703005, "WEST-2-MOV", 230.0000, 1, 5, 2, 5, 1.006320, -24.40700, 1.100000, 0.9000000, 1.100000, 0.9000000]
            ]
        }, 
        "load":{
            "fields":["ibus", "loadid", "stat", "area", "zone", "pl", "ql", "ip", "iq", "yp", "yq", "owner", "scale", "intrpt", "dgenp", "dgenq", "dgenm", "loadtype"], 
            "data":[
                [152, "1", 1, 1, 1, 1200.000, 360.0000, 868.3400, 360.5020, 837.7940, -351.3380, 1, 1, 0, 0.000000, 0.000000, 0, ""], 
                [153, "1", 1, 1, 1, 300.0000, 150.0000, 0.000000, 0.000000, 0.000000, 0.000000, 1, 1, 0, 100.0000, 50.00000, 1, ""], 
                [154, "1", 1, 1, 1, 400.0000, 200.0000, 0.000000, 0.000000, 0.000000, 0.000000, 1, 1, 0, 30.00000, 15.00000, 1, ""], 
                [154, "2", 1, 1, 1, 250.0000, 200.0000, 0.000000, 0.000000, 0.000000, 0.000000, 1, 1, 0, 20.00000, 8.000000, 1, ""], 
                [154, "3", 1, 1, 1, 250.0000, 100.0000, 0.000000, 0.000000, 0.000000, 0.000000, 1, 1, 0, 7.500000, 2.750000, 1, ""], 
                [154, "MO", 1, 1, 1, 100.0000, 80.00000, 0.000000, 0.000000, 0.000000, 0.000000, 1, 1, 0, 0.000000, 0.000000, 0, ""], 
                [201, "SC", 1, 2, 7, 0.000000, 0.000000, 0.000000, 0.000000, 0.000000, 0.000000, 2, 1, 0, 0.000000, 0.000000, 0, ""], 
                [203, "1", 1, 2, 2, 500.0000, 250.0000, 0.000000, 0.000000, 0.000000, 0.000000, 2, 1, 0, 0.000000, 0.000000, 0, ""], 
                [205, "1", 1, 2, 2, 1800.000, 600.0000, 0.000000, 0.000000, 0.000000, 0.000000, 2, 1, 0, 75.86000, 46.78600, 0, ""], 
                [205, "B", 1, 2, 2, 90.00000, 5.000000, 110.0000, 25.00000, 20.00000, 10.00000, 2, 1, 0, 65.12300, 20.45600, 1, ""], 
                [205, "C", 1, 2, 2, 60.00000, 15.00000, 45.00000, 5.000000, 35.00000, 30.00000, 2, 1, 0, 37.00000, 13.00000, 1, ""], 
                [214, "1", 1, 2, 2, 500.0000, 75.00000, 0.000000, 0.000000, 0.000000, 0.000000, 2, 1, 0, 0.000000, 0.000000, 0, ""], 
                [215, "U1", 1, 2, 4, 0.000000, 140.0000, 0.000000, 0.000000, 0.000000, 0.000000, 2, 1, 0, 0.000000, 0.000000, 0, ""], 
                [216, "U1", 1, 2, 4, 0.000000, 12.00000, 0.000000, 0.000000, 0.000000, 0.000000, 2, 1, 0, 0.000000, 0.000000, 0, ""], 
                [217, "U1", 1, 2, 4, 0.000000, 10.00000, 0.000000, 0.000000, 0.000000, 0.000000, 2, 1, 0, 0.000000, 0.000000, 0, ""], 
                [218, "U1", 1, 2, 4, 0.000000, 9.000000, 0.000000, 0.000000, 0.000000, 0.000000, 2, 1, 0, 0.000000, 0.000000, 0, ""], 
                [3005, "1", 1, 5, 5, 100.0000, 50.00000, 0.000000, 0.000000, 0.000000, 0.000000, 5, 1, 0, 0.000000, 0.000000, 0, ""], 
                [3007, "1", 1, 5, 5, 200.0000, 75.00000, 0.000000, 0.000000, 0.000000, 0.000000, 5, 1, 0, 0.000000, 0.000000, 0, ""], 
                [3008, "1", 1, 5, 5, 200.0000, 75.00000, 0.000000, 0.000000, 0.000000, 0.000000, 5, 1, 0, 0.000000, 0.000000, 0, ""], 
                [3009, "1", 1, 5, 4, 1.100000, 0.9000000, 0.000000, 0.000000, 0.000000, 0.000000, 5, 1, 0, 0.000000, 0.000000, 0, ""], 
                [3010, "1", 1, 5, 4, 12.00000, 5.000000, 0.000000, 0.000000, 0.000000, 0.000000, 5, 1, 0, 0.000000, 0.000000, 0, ""]
            ]
        }, 
        "fixshunt":{
            "fields":["ibus", "shntid", "stat", "gl", "bl"], 
            "data":[
                [151, "F1", 1, 5.000000, -400.0000], 
                [151, "F2", 1, 3.000000, -400.0000], 
                [151, "F3", 1, 3.120000, 200.0000], 
                [152, "1", 1, 1.630000, 50.00000], 
                [154, "1", 1, 2.450000, 200.0000], 
                [201, "1", 1, 3.670000, -500.0000], 
                [203, "1", 1, -5.000000, 30.00000], 
                [203, "2", 1, 5.000000, 20.00000], 
                [205, "1", 1, 2.780000, 300.0000], 
                [212, "1", 1, 5.130000, 400.0000], 
                [213, "1", 1, 5.140000, 400.0000], 
                [3021, "1", 1, 0.000000, 1320.000], 
                [3022, "1", 1, 0.000000, 1080.000]
            ]
        }, 
        "generator":{
            "fields":["ibus", "machid", "pg", "qg", "qt", "qb", "vs", "ireg", "nreg", "mbase", "zr", "zx", "rt", "xt", "gtap", "stat", "rmpct", "pt", "pb", "baslod", "o1", "f1", "o2", "f2", "o3", "f3", "o4", "f4", "wmod", "wpf", "droopname"], 
            "data":[
                [101, "1", 750.0000, 163.8350, 400.0000, -100.0000, 1.010000, 101, 0, 900.0000, 0.1000000E-01, 0.3000000, 0.000000, 0.000000, 1.000000, 1, 100.0000, 800.0000, 50.00000, 0, 1, 0.1289000, 2, 0.2524000, 3, 0.1031000, 4, 0.5156000, null, null, ""], 
                [102, "1", 650.0000, 150.5120, 410.0000, -110.0000, 1.010000, 102, 0, 950.0000, 0.1050000E-01, 0.3200000, 0.000000, 0.000000, 1.000000, 1, 100.0000, 700.0000, 33.00000, 0, 1, 0.3647000, 2, 0.1838000, 3, 0.7510000E-01, 4, 0.3764000, null, null, ""], 
                [206, "1", 800.0000, 283.9130, 500.0000, -400.0000, 1.000000, 206, 0, 1000.000, 0.1060000E-01, 0.2510000, 0.000000, 0.000000, 1.000000, 1, 100.0000, 850.0000, 50.00000, 0, 1, 0.1034000, 2, 0.4006000, 3, 0.8250000E-01, 4, 0.4135000, null, null, ""], 
                [211, "1", 600.0000, 17.58300, 510.0000, -100.0000, 1.000000, 211, 0, 725.0000, 0.1080000E-01, 0.2620000, 0.000000, 0.000000, 1.000000, 1, 100.0000, 616.0000, 30.00000, 0, 1, 0.1423000, 2, 0.2210000, 3, 0.1842000, 4, 0.4525000, null, null, ""], 
                [301, "1", 996.8840, 299.5430, 700.0000, -650.0000, 1.000000, 301, 0, 1067.000, 0.1090000E-01, 0.2300000, 0.1400000E-01, 0.1260000, 1.025000, 1, 98.00000, 1010.000, 320.0000, 0, 1, 0.1118000, 2, 0.2184000, 3, 0.8930000E-01, 4, 0.5805000, null, null, ""], 
                [301, "2", 996.8840, 299.5430, 710.0000, -600.0000, 1.000000, 301, 0, 1070.000, 0.1100000E-01, 0.2400000, 0.1100000E-01, 0.1270000, 1.026000, 1, 98.00000, 1011.000, 321.0000, 0, 1, 0.1173000, 2, 0.3200000, 3, 0.9360000E-01, 4, 0.4691000, null, null, ""], 
                [301, "3", 996.8840, 299.5430, 720.0000, -600.0000, 1.000000, 301, 0, 1075.000, 0.8000000E-02, 0.2500000, 0.1200000E-01, 0.1280000, 1.027000, 1, 98.00000, 1012.000, 322.0000, 0, 1, 0.1260000, 2, 0.2268000, 3, 0.1827000, 4, 0.4644000, null, null, ""], 
                [401, "1", 321.0000, 142.3250, 600.0000, -100.0000, 1.000000, 401, 0, 600.0000, 0.1230000E-01, 0.2223000, 0.000000, 0.000000, 1.000000, 1, 90.00000, 350.0000, 25.00000, 0, 1, 0.1625000, 2, 0.2423000, 3, 0.9900000E-01, 4, 0.4962000, null, null, ""], 
                [402, "1", 321.0000, 142.3250, 610.0000, -110.0000, 1.000000, 402, 0, 610.0000, 0.4500000E-02, 0.2432000, 0.000000, 0.000000, 1.000000, 1, 91.00000, 351.0000, 26.00000, 0, 1, 0.1588000, 2, 0.2117000, 3, 0.1959000, 4, 0.4335000, null, null, ""], 
                [3011, "1", 1142.468, 132.9650, 620.0000, -120.0000, 1.000000, 3011, 0, 1050.000, 0.7600000E-02, 0.3543000, 0.000000, 0.000000, 1.000000, 1, 92.00000, 1400.000, 100.0000, 0, 1, 0.1452000, 2, 0.1926000, 3, 0.2677000, 4, 0.3945000, null, null, ""], 
                [3018, "1", 400.0000, -0.6280000, 300.0000, -150.0000, 0.9900000, 3018, 0, 530.0000, 0.8700000E-01, 0.3563000, 0.000000, 0.000000, 1.000000, 1, 92.50000, 500.0000, 50.00000, 0, 1, 0.1043000, 2, 0.2037000, 3, 0.2749000, 4, 0.4171000, null, null, ""], 
                [3018, "2", 100.0000, -0.1570000, 75.00000, -75.00000, 0.9900000, 3018, 0, 120.0000, 0.2400000E-01, 0.3553000, 0.000000, 0.000000, 1.000000, 1, 92.50000, 110.0000, 20.00000, 0, 1, 0.3003000, 2, 0.1358000, 3, 0.2857000, 4, 0.2782000, null, null, ""]
            ]
        }, 
        "acline":{
            "fields":["ibus", "jbus", "ckt", "rpu", "xpu", "bpu", "name", "rate1", "rate2", "rate3", "rate4", "rate5", "rate6", "rate7", "rate8", "rate9", "rate10", "rate11", "rate12", "gi", "bi", "gj", "bj", "stat", "met", "len", "o1", "f1", "o2", "f2", "o3", "f3", "o4", "f4"], 
            "data":[
                [151, 152, "1", 0.2600000E-02, 0.4600000E-01, 3.500000, "BRANCH_FROM__151_TO__152___CIRCUIT_ID__1", 1200.000, 1202.120, 1203.130, 1204.140, 1205.150, 1206.160, 1207.170, 1208.180, 1209.190, 1210.200, 1211.210, 1212.220, 0.1000000E-01, -0.2500000, 0.1100000E-01, -0.1500000, 1, 2, 150.0000, 1, 0.2000000, 2, 0.3000000, 3, 0.4000000, 4, 0.1000000], 
                [151, 152, "2", 0.2610000E-02, 0.4610000E-01, 3.510000, "BRANCH_FROM__151_TO__152___CIRCUIT_ID__2", 1205.000, 1207.120, 1208.130, 1209.140, 1210.150, 1211.160, 1212.170, 1213.180, 1214.190, 1215.200, 1216.210, 1217.220, 0.1300000E-01, -0.2510000, 0.1200000E-01, -0.2000000E-01, 1, 2, 149.0000, 5, 0.2315000, 1, 0.3056000, 2, 0.3704000, 3, 0.9260000E-01], 
                [152, 3004, "1", 0.3000000E-02, 0.3000000E-01, 2.500000, "BRANCH_FROM__152_TO_3004___CIRCUIT_ID__1", 1207.000, 1209.120, 1210.130, 1211.140, 1212.150, 1213.160, 1214.170, 1215.180, 1216.190, 1217.200, 1218.210, 1219.220, 0.000000, 0.000000, 0.000000, 0.000000, 1, 2, 201.0000, 5, 0.2379000, 1, 0.3033000, 2, 0.3667000, 3, 0.9220000E-01], 
                [152, 70202, "1", 0.8000000E-03, 0.1000000E-01, 0.9500000, "BRANCH_FROM__152_TO__70202_CIRCUIT_ID__1", 1207.000, 1209.120, 1210.130, 1211.140, 1212.150, 1213.160, 1214.170, 1215.180, 1216.190, 1217.200, 1218.210, 1219.220, 0.000000, 0.000000, 0.000000, 0.000000, 1, 1, 200.0000, 1, 0.3939000, 2, 0.2273000, 3, 0.3030000, 4, 0.7580000E-01], 
                [153, 154, "2", 0.6000000E-02, 0.5400000E-01, 0.1500000, "BRANCH_FROM__153_TO__154___CIRCUIT_ID__2", 350.0000, 352.1200, 353.1300, 354.1400, 355.1500, 356.1600, 357.1700, 358.1800, 359.1900, 360.2000, 361.2100, 362.2200, 0.000000, 0.000000, 0.000000, 0.000000, 1, 2, 80.00000, 2, 0.2727000, 3, 0.2727000, 4, 0.3636000, 5, 0.9090000E-01], 
                [154, 155, "1", 0.5000000E-02, 0.4500000E-01, 0.1000000, "BRANCH_FROM__154_TO__155___CIRCUIT_ID__1", 400.0000, 402.1200, 403.1300, 404.1400, 405.1500, 406.1600, 407.1700, 408.1800, 409.1900, 410.2000, 411.2100, 412.2200, 0.000000, 0.000000, 0.000000, 0.000000, 1, 1, 81.00000, 5, 0.1914000, 1, 0.2535000, 2, 0.3065000, 3, 0.2486000], 
                [154, 203, "1", 0.4000000E-02, 0.4000000E-01, 0.1000000, "BRANCH_FROM__154_TO__203___CIRCUIT_ID__1", 400.0000, 402.1200, 403.1300, 404.1400, 405.1500, 406.1600, 407.1700, 408.1800, 409.1900, 410.2000, 411.2100, 412.2200, 0.000000, 0.000000, 0.000000, 0.000000, 1, 2, 100.0000, 2, 0.2000000, 3, 0.3000000, 4, 0.4000000, 5, 0.1000000], 
                [154, 205, "1", 0.3300000E-03, 0.3330000E-02, 0.9000000E-01, "BRANCH_FROM__154_TO__205___CIRCUIT_ID__1", 600.0000, 602.1200, 603.1300, 604.1400, 605.1500, 606.1600, 607.1700, 608.1800, 609.1900, 610.2000, 611.2100, 612.2200, 0.000000, 0.000000, 0.000000, 0.000000, 1, 2, 120.0000, 1, 0.1667000, 2, 0.2500000, 3, 0.3333000, 4, 0.2500000], 
                [154, 3008, "1", 0.2700000E-02, 0.2200000E-01, 0.3000000, "BRANCH_FROM__154_TO_3008___CIRCUIT_ID__1", 800.0000, 802.1200, 803.1300, 804.1400, 805.1500, 806.1600, 807.1700, 808.1800, 809.1900, 810.2000, 811.2100, 812.2200, 0.000000, 0.000000, 0.000000, 0.000000, 1, 2, 119.0000, 5, 0.1925000, 1, 0.2550000, 2, 0.3083000, 3, 0.2442000], 
                [201, 202, "1", 0.2000000E-02, 0.2500000E-01, 2.000000, "BRANCH_FROM__201_TO__202___CIRCUIT_ID__1", 1200.000, 1202.120, 1203.130, 1204.140, 1205.150, 1206.160, 1207.170, 1208.180, 1209.190, 1210.200, 1211.210, 1212.220, 0.000000, 0.000000, 0.000000, 0.000000, 1, 2, 300.0000, 2, 0.1905000, 3, 0.2857000, 4, 0.3810000, 5, 0.1429000], 
                [201, 207, "C1", 0.1500000E-02, 0.1500000E-01, 1.250000, "BRANCH_FROM__201_TO__207___CIRCUIT_ID_C1", 1200.000, 1202.120, 1203.130, 1204.140, 1205.150, 1206.160, 1207.170, 1208.180, 1209.190, 1210.200, 1211.210, 1212.220, 0.000000, 0.000000, 0.000000, 0.000000, 1, 2, 250.0000, 1, 0.2500000, 2, 0.3750000, 3, 0.2500000, 4, 0.1250000], 
                [202, 70202, "1", 0.000000, -0.1000000E-02, 0.000000, "BRANCH_FROM__202_TO_70202_CIRCUIT_ID__1", 1207.000, 1209.120, 1210.130, 1211.140, 1212.150, 1213.160, 1214.170, 1215.180, 1216.190, 1217.200, 1218.210, 1219.220, 0.000000, 0.000000, 0.000000, 0.000000, 1, 1, 1.000000, 1, 0.3939000, 2, 0.2273000, 3, 0.3030000, 4, 0.7580000E-01], 
                [203, 205, "1", 0.5000000E-02, 0.4500000E-01, 0.8000000E-01, "BRANCH_FROM__203_TO__205___CIRCUIT_ID__1", 200.0000, 202.1200, 203.1300, 204.1400, 205.1500, 206.1600, 207.1700, 208.1800, 209.1900, 210.2000, 211.2100, 212.2200, 0.000000, 0.000000, 0.000000, 0.000000, 1, 1, 70.00000, 5, 0.1925000, 1, 0.2550000, 2, 0.3083000, 3, 0.2442000], 
                [204, 207, "C2", 0.1500000E-02, 0.1500000E-01, 1.250000, "BRANCH_FROM__204_TO__207___CIRCUIT_ID_C2", 1200.000, 1202.120, 1203.130, 1204.140, 1205.150, 1206.160, 1207.170, 1208.180, 1209.190, 1210.200, 1211.210, 1212.220, 0.000000, 0.000000, 0.000000, 0.000000, 1, 2, 300.0000, 2, 0.2000000, 3, 0.3000000, 4, 0.4000000, 5, 0.1000000], 
                [205, 212, "1", 0.000000, 0.1000000E-01, 0.000000, "BRANCH_FROM__205_TO__212___CIRCUIT_ID__1", 1250.000, 1252.120, 1253.130, 1254.140, 1255.150, 1256.160, 1257.170, 1258.180, 1259.190, 1260.200, 1261.210, 1262.220, 0.000000, 0.000000, 0.000000, 0.000000, 1, 1, 71.00000, 1, 0.2000000, 2, 0.3000000, 3, 0.4000000, 4, 0.1000000], 
                [205, 214, "2", 0.2000000E-02, 0.2500000E-01, 2.000000, "BRANCH_FROM__205_TO__214___CIRCUIT_ID__2", 1200.000, 1202.120, 1203.130, 1204.140, 1205.150, 1206.160, 1207.170, 1208.180, 1209.190, 1210.200, 1211.210, 1212.220, 0.000000, 0.000000, 0.000000, 0.000000, 1, 2, 100.0000, 5, 0.2100000, 1, 0.2782000, 2, 0.3364000, 3, 0.1755000], 
                [205, 216, "3", 0.5000000E-02, 0.4500000E-01, 0.8000000E-01, "BRANCH_FROM__205_TO__216___CIRCUIT_ID__3", 200.0000, 202.1200, 203.1300, 204.1400, 205.1500, 206.1600, 207.1700, 208.1800, 209.1900, 210.2000, 211.2100, 212.2200, 0.000000, 0.000000, 0.000000, 0.000000, 1, 2, 81.00000, 2, 0.1818000, 3, 0.2727000, 4, 0.3636000, 5, 0.1818000], 
                [205, 217, "4", 0.5000000E-02, 0.4500000E-01, 0.8000000E-01, "BRANCH_FROM__205_TO__217___CIRCUIT_ID__4", 200.0000, 202.1200, 203.1300, 204.1400, 205.1500, 206.1600, 207.1700, 208.1800, 209.1900, 210.2000, 211.2100, 212.2200, 0.000000, 0.000000, 0.000000, 0.000000, 1, 2, 80.00000, 1, 0.1667000, 2, 0.2500000, 3, 0.3333000, 4, 0.2500000], 
                [205, 218, "5", 0.5000000E-02, 0.4500000E-01, 0.8000000E-01, "BRANCH_FROM__205_TO__218___CIRCUIT_ID__5", 200.0000, 202.1200, 203.1300, 204.1400, 205.1500, 206.1600, 207.1700, 208.1800, 209.1900, 210.2000, 211.2100, 212.2200, 0.000000, 0.000000, 0.000000, 0.000000, 1, 2, 59.00000, 5, 0.1650000, 1, 0.2186000, 2, 0.2643000, 3, 0.3521000], 
                [213, 214, "1", 0.000000, 0.1000000E-01, 0.000000, "BRANCH_FROM__213_TO__214___CIRCUIT_ID__1", 1250.000, 1252.120, 1253.130, 1254.140, 1255.150, 1256.160, 1257.170, 1258.180, 1259.190, 1260.200, 1261.210, 1262.220, 0.000000, 0.000000, 0.000000, 0.000000, 1, 2, 0.5000000, 2, 0.1429000, 3, 0.2143000, 4, 0.2857000, 5, 0.3571000], 
                [3001, 703003, "1", 0.000000, 0.8000000E-02, 0.000000, "BRANCH_FROM_3001_TO_703003_CIRCUIT_ID__1", 320.0000, 322.1200, 323.1300, 324.1400, 325.1500, 326.1600, 327.1700, 328.1800, 329.1900, 330.2000, 331.2100, 332.2200, 0.000000, 0.000000, 0.000000, 0.000000, 1, 2, 70.00000, 1, 0.1639000, 2, 0.2459000, 3, 0.3279000, 4, 0.2623000], 
                [3002, 3004, "1", 0.6000000E-02, 0.5400000E-01, 0.9000000E-01, "BRANCH_FROM_3002_TO_3004___CIRCUIT_ID__1", 330.0000, 332.1200, 333.1300, 334.1400, 335.1500, 336.1600, 337.1700, 338.1800, 339.1900, 340.2000, 341.2100, 342.2200, 0.000000, 0.000000, 0.000000, 0.000000, 1, 2, 200.0000, 5, 0.1925000, 1, 0.2550000, 2, 0.3083000, 3, 0.2442000], 
                [3003, 3005, "1", 0.6000000E-02, 0.5400000E-01, 0.9000000E-01, "BRANCH_FROM_3003_TO_3005___CIRCUIT_ID__1", 340.0000, 342.1200, 343.1300, 344.1400, 345.1500, 346.1600, 347.1700, 348.1800, 349.1900, 350.2000, 351.2100, 352.2200, 0.000000, 0.000000, 0.000000, 0.000000, 1, 2, 90.00000, 2, 0.2000000, 3, 0.3000000, 4, 0.4000000, 5, 0.1000000], 
                [3003, 703003, "1", 0.000000, -0.9000000E-02, 0.000000, "BRANCH_FROM_3003_TO_703003_CIRCUIT_ID__1", 350.0000, 352.1200, 353.1300, 354.1400, 355.1500, 356.1600, 357.1700, 358.1800, 359.1900, 360.2000, 361.2100, 362.2200, 0.000000, 0.000000, 0.000000, 0.000000, 1, 2, 1.000000, 5, 0.1925000, 1, 0.2550000, 2, 0.3083000, 3, 0.2442000], 
                [3003, 703005, "2", 0.6000000E-02, 0.5400000E-01, 0.9000000E-01, "BRANCH_FROM_3003_TO_703005_CIRCUIT_ID__2", 360.0000, 362.1200, 363.1300, 364.1400, 365.1500, 366.1600, 367.1700, 368.1800, 369.1900, 370.2000, 371.2100, 372.2200, 0.000000, 0.000000, 0.000000, 0.000000, 1, 2, 90.00000, 1, 0.1333000, 2, 0.2000000, 3, 0.2667000, 4, 0.4000000], 
                [3005, 3006, "1", 0.3500000E-02, 0.3000000E-01, 0.7000000E-01, "BRANCH_FROM_3005_TO_3006___CIRCUIT_ID__1", 370.0000, 372.1200, 373.1300, 374.1400, 375.1500, 376.1600, 377.1700, 378.1800, 379.1900, 380.2000, 381.2100, 382.2200, 0.000000, 0.000000, 0.000000, 0.000000, 1, 2, 70.00000, 5, 0.1650000, 1, 0.2186000, 2, 0.2643000, 3, 0.3521000], 
                [3005, 3007, "1", 0.3000000E-02, 0.2500000E-01, 0.6000000E-01, "BRANCH_FROM_3005_TO_3007___CIRCUIT_ID__1", 380.0000, 382.1200, 383.1300, 384.1400, 385.1500, 386.1600, 387.1700, 388.1800, 389.1900, 390.2000, 391.2100, 392.2200, 0.000000, 0.000000, 0.000000, 0.000000, 1, 2, 80.00000, 2, 0.1527000, 3, 0.2290000, 4, 0.3053000, 5, 0.3130000], 
                [3005, 3008, "1", 0.6000000E-02, 0.5000000E-01, 0.1200000, "BRANCH_FROM_3005_TO_3008___CIRCUIT_ID__1", 390.0000, 392.1200, 393.1300, 394.1400, 395.1500, 396.1600, 397.1700, 398.1800, 399.1900, 400.2000, 401.2100, 402.2200, 0.000000, 0.000000, 0.000000, 0.000000, 0, 2, 60.00000, 1, 0.1802000, 2, 0.2703000, 3, 0.3604000, 4, 0.1892000], 
                [3005, 703005, "2", 0.000000, -0.6500000E-02, 0.000000, "BRANCH_FROM_3005_TO_703005_CIRCUIT_ID__2", 500.0000, 502.1200, 503.1300, 504.1400, 505.1500, 506.1600, 507.1700, 508.1800, 509.1900, 510.2000, 511.2100, 512.2200, 0.000000, 0.000000, 0.000000, 0.000000, 1, 2, 1.000000, 1, 0.1333000, 2, 0.2000000, 3, 0.2667000, 4, 0.4000000], 
                [3007, 3008, "1", 0.3000000E-02, 0.2500000E-01, 0.6000000E-01, "BRANCH_FROM_3007_TO_3008___CIRCUIT_ID__1", 510.0000, 512.1200, 513.1300, 514.1400, 515.1500, 516.1600, 517.1700, 518.1800, 519.1900, 520.2000, 521.2100, 522.2200, 0.000000, 0.000000, 0.000000, 0.000000, 1, 2, 60.00000, 5, 0.1858000, 1, 0.2462000, 2, 0.4023000, 3, 0.1657000], 
                [3008, 3009, "1", 0.3000000E-02, 0.2500000E-01, 0.6000000E-01, "BRANCH_FROM_3008_TO_3009___CIRCUIT_ID__1", 25.00000, 27.12000, 28.13000, 29.14000, 30.15000, 31.16000, 32.17000, 33.18000, 34.19000, 35.20000, 36.21000, 37.22000, 0.000000, 0.000000, 0.000000, 0.000000, 1, 2, 60.00000, 1, 0.1797000, 2, 0.2695000, 3, 0.3594000, 4, 0.1914000]
            ]
        }, 
        "sysswd":{
            "fields":["ibus", "jbus", "ckt", "xpu", "rate1", "rate2", "rate3", "rate4", "rate5", "rate6", "rate7", "rate8", "rate9", "rate10", "rate11", "rate12", "stat", "nstat", "met", "stype", "name"], 
            "data":[
                [151, 201, "*1", 0.1000000E-03, 1206.000, 1106.000, 1006.000, 0.000000, 0.000000, 0.000000, 0.000000, 0.000000, 0.000000, 0.000000, 0.000000, 0.000000, 1, 1, 2, 3, ""], 
                [153, 3006, "@1", 0.1000000E-03, 0.000000, 0.000000, 0.000000, 0.000000, 0.000000, 0.000000, 0.000000, 0.000000, 0.000000, 0.000000, 0.000000, 0.000000, 1, 1, 2, 2, ""]
            ]
        }, 
        "transformer":{
            "fields":["ibus", "jbus", "kbus", "ckt", "cw", "cz", "cm", "mag1", "mag2", "nmet", "name", "stat", "o1", "f1", "o2", "f2", "o3", "f3", "o4", "f4", "vecgrp", "zcod", "r1_2", "x1_2", "sbase1_2", "r2_3", "x2_3", "sbase2_3", "r3_1", "x3_1", "sbase3_1", "vmstar", "anstar", "windv1", "nomv1", "ang1", "wdg1rate1", "wdg1rate2", "wdg1rate3", "wdg1rate4", "wdg1rate5", "wdg1rate6", "wdg1rate7", "wdg1rate8", "wdg1rate9", "wdg1rate10", "wdg1rate11", "wdg1rate12", "cod1", "cont1", "node1", "rma1", "rmi1", "vma1", "vmi1", "ntp1", "tab1", "cr1", "cx1", "cnxa1", "windv2", "nomv2", "ang2", "wdg2rate1", "wdg2rate2", "wdg2rate3", "wdg2rate4", "wdg2rate5", "wdg2rate6", "wdg2rate7", "wdg2rate8", "wdg2rate9", "wdg2rate10", "wdg2rate11", "wdg2rate12", "cod2", "cont2", "node2", "rma2", "rmi2", "vma2", "vmi2", "ntp2", "tab2", "cr2", "cx2", "cnxa2", "windv3", "nomv3", "ang3", "wdg3rate1", "wdg3rate2", "wdg3rate3", "wdg3rate4", "wdg3rate5", "wdg3rate6", "wdg3rate7", "wdg3rate8", "wdg3rate9", "wdg3rate10", "wdg3rate11", "wdg3rate12", "cod3", "cont3", "node3", "rma3", "rmi3", "vma3", "vmi3", "ntp3", "tab3", "cr3", "cx3", "cnxa3"], 
            "data":[
                [101, 151, 0, "T1", 2, 2, 1, 0.1714700, -0.1028800, 2, "EL DORADO NUCLEAR UNIT A GSU TRANSFORMER", 1, 1, 0.3200000, 2, 0.3900000, 3, 0.1400000, 4, 0.1500000, "Dyn1", null, 0.1100000E-02, 0.9100000E-01, 1200.000, null, null, null, null, null, null, null, null, 21.60000, 21.60000, 0.000000, 1200.000, 1202.120, 1203.130, 1204.140, 1205.150, 1206.160, 1207.170, 1208.180, 1209.190, 1210.200, 1211.210, 1212.220, 1, 101, 0, 22.68000, 20.52000, 1.050000, 0.9500000, 25, 0, 0.2100000E-03, 0.5100000E-03, 0.000000, 500.0000, 500.0000, null, null, null, null, null, null, null, null, null, null, null, null, null, null, null, null, null, null, null, null, null, null, null, null, null, null, null, null, null, null, null, null, null, null, null, null, null, null, null, null, null, null, null, null, null, null, null, null, null, null, null, null], 
                [102, 151, 0, "T2", 2, 1, 2, 453750.0, 0.2600000E-02, 2, "EL DORADO NUCLEAR UNIT B GSU TRANSFORMER", 1, 1, 0.2100000, 2, 0.2500000, 3, 0.2200000, 4, 0.3200000, "Dyn1", null, 0.1200000E-03, 0.7600000E-02, 1210.000, null, null, null, null, null, null, null, null, 21.60000, 21.60000, 0.000000, 1210.000, 1212.120, 1213.130, 1214.140, 1215.150, 1216.160, 1217.170, 1218.180, 1219.190, 1220.200, 1221.210, 1222.220, 1, 102, 0, 22.57200, 20.62800, 1.045000, 0.9550000, 27, 0, 0.2200000E-03, 0.5200000E-03, 0.000000, 500.0000, 500.0000, null, null, null, null, null, null, null, null, null, null, null, null, null, null, null, null, null, null, null, null, null, null, null, null, null, null, null, null, null, null, null, null, null, null, null, null, null, null, null, null, null, null, null, null, null, null, null, null, null, null, null, null], 
                [152, 153, 0, "T3", 2, 1, 1, 0.2100000E-03, -0.1200000E-03, 2, "MID LTC", 1, 1, 0.3500000, 2, 0.2200000, 3, 0.2500000, 4, 0.1800000, "YNyn0", null, 0.1700000E-03, 0.7750000E-02, 800.0000, null, null, null, null, null, null, null, null, 475.0000, 500.0000, 0.000000, 800.0000, 802.1200, 803.1300, 804.1400, 805.1500, 806.1600, 807.1700, 808.1800, 809.1900, 810.2000, 811.2100, 812.2200, 1, 154, 0, 525.0000, 475.0000, 1.000000, 0.9800000, 10, 0, 0.2300000E-03, 0.5300000E-03, 0.000000, 230.0000, 230.0000, null, null, null, null, null, null, null, null, null, null, null, null, null, null, null, null, null, null, null, null, null, null, null, null, null, null, null, null, null, null, null, null, null, null, null, null, null, null, null, null, null, null, null, null, null, null, null, null, null, null, null, null], 
                [152, 3021, 0, "T4", 1, 2, 2, 562500.0, 0.2800000E-02, 2, "WDUM DC", 1, 1, 0.3900000, 2, 0.3200000, 3, 0.1500000, 4, 0.1400000, "YNyn0", null, 0.1300000E-02, 0.6300000E-01, 1500.000, null, null, null, null, null, null, null, null, 1.100000, 500.0000, 0.000000, 1500.000, 1502.120, 1503.130, 1504.140, 1505.150, 1506.160, 1507.170, 1508.180, 1509.190, 1510.200, 1511.210, 1512.220, 4, 0, 0, 1.100000, 0.9000000, 1.100000, 0.9000000, 33, 2, 0.000000, 0.000000, 0.000000, 1.000000, 18.00000, null, null, null, null, null, null, null, null, null, null, null, null, null, null, null, null, null, null, null, null, null, null, null, null, null, null, null, null, null, null, null, null, null, null, null, null, null, null, null, null, null, null, null, null, null, null, null, null, null, null, null, null], 
                [152, 3022, 0, "T5", 1, 2, 1, 0.4000000E-03, -0.2100000E-03, 2, "EDUM DC", 1, 1, 0.2200000, 2, 0.2500000, 3, 0.2100000, 4, 0.3200000, "YNyn0", null, 0.1700000E-02, 0.7400000E-01, 1510.000, null, null, null, null, null, null, null, null, 1.100000, 500.0000, 0.000000, 1510.000, 1512.120, 1513.130, 1514.140, 1515.150, 1516.160, 1517.170, 1518.180, 1519.190, 1520.200, 1521.210, 1522.220, 4, 0, 0, 1.100000, 0.9000000, 1.100000, 0.9000000, 33, 0, 0.000000, 0.000000, 0.000000, 1.000000, 18.00000, null, null, null, null, null, null, null, null, null, null, null, null, null, null, null, null, null, null, null, null, null, null, null, null, null, null, null, null, null, null, null, null, null, null, null, null, null, null, null, null, null, null, null, null, null, null, null, null, null, null, null, null], 
                [154, 9154, 0, "W1", 1, 1, 1, 0.000000, 0.000000, 2, "WTG1XMER", 1, 1, 1.000000, 0, 1.000000, 0, 1.000000, 0, 1.000000, "YNd1", null, 0.000000, 0.5833300, 12.00000, null, null, null, null, null, null, null, null, 1.000000, 0.000000, 0.000000, 12.00000, 14.12000, 15.13000, 16.14000, 17.15000, 18.16000, 19.17000, 20.18000, 21.19000, 22.20000, 23.21000, 24.22000, 0, 0, 0, 1.100000, 0.9000000, 1.100000, 0.9000000, 33, 0, 0.000000, 0.000000, 0.000000, 1.000000, 0.000000, null, null, null, null, null, null, null, null, null, null, null, null, null, null, null, null, null, null, null, null, null, null, null, null, null, null, null, null, null, null, null, null, null, null, null, null, null, null, null, null, null, null, null, null, null, null, null, null, null, null, null, null], 
                [201, 211, 0, "T6", 2, 1, 2, 262500.0, 0.3000000E-02, 2, "HYDRO_G XMER", 1, 1, 0.1400000, 2, 0.1500000, 3, 0.3200000, 4, 0.3900000, "YNd1", null, 0.2600000E-03, 0.1343000E-01, 700.0000, null, null, null, null, null, null, null, null, 500.0000, 500.0000, 0.000000, 700.0000, 702.1200, 703.1300, 704.1400, 705.1500, 706.1600, 707.1700, 708.1800, 709.1900, 710.2000, 711.2100, 712.2200, 0, 0, 0, 1.100000, 0.9000000, 1.100000, 0.9000000, 5, 0, 0.000000, 0.000000, 0.000000, 20.00000, 20.00000, null, null, null, null, null, null, null, null, null, null, null, null, null, null, null, null, null, null, null, null, null, null, null, null, null, null, null, null, null, null, null, null, null, null, null, null, null, null, null, null, null, null, null, null, null, null, null, null, null, null, null, null], 
                [203, 202, 0, "T7", 1, 2, 1, 0.9500000E-03, -0.4600000E-03, 1, "EAST PS", 1, 1, 0.2754000, 2, 0.3261000, 3, 0.2899000, 4, 0.1087000, "YNyn0", null, 0.2100000E-02, 0.5400000E-01, 750.0000, null, null, null, null, null, null, null, null, 0.9900000, 230.0000, 0.1430000, 750.0000, 752.1200, 753.1300, 754.1400, 755.1500, 756.1600, 757.1700, 758.1800, 759.1900, 760.2000, 761.2100, 762.2200, 3, 0, 0, 12.00000, -11.00000, -900.0000, -950.0000, 33, 1, 0.000000, 0.000000, 0.000000, 1.000000, 500.0000, null, null, null, null, null, null, null, null, null, null, null, null, null, null, null, null, null, null, null, null, null, null, null, null, null, null, null, null, null, null, null, null, null, null, null, null, null, null, null, null, null, null, null, null, null, null, null, null, null, null, null, null], 
                [204, 205, 0, "T8", 1, 2, 1, 0.1130000E-02, -0.5200000E-03, 2, "SUB LTC", 1, 1, 0.3019000, 2, 0.4245000, 3, 0.1321000, 4, 0.1415000, "YNyn0", null, 0.3700000E-02, 0.4500000E-01, 800.0000, null, null, null, null, null, null, null, null, 1.036670, 500.0000, 0.000000, 800.0000, 802.1200, 803.1300, 804.1400, 805.1500, 806.1600, 807.1700, 808.1800, 809.1900, 810.2000, 811.2100, 812.2200, 1, 205, 0, 1.050000, 0.9500000, 1.000000, 0.9800000, 16, 0, 0.2400000E-03, 0.5400000E-03, 0.000000, 1.000000, 230.0000, null, null, null, null, null, null, null, null, null, null, null, null, null, null, null, null, null, null, null, null, null, null, null, null, null, null, null, null, null, null, null, null, null, null, null, null, null, null, null, null, null, null, null, null, null, null, null, null, null, null, null, null], 
                [204, 9204, 0, "W2", 1, 1, 1, 0.000000, 0.000000, 2, "WTG2XMER", 1, 2, 1.000000, 0, 1.000000, 0, 1.000000, 0, 1.000000, "YNd1", null, 0.8800000E-01, 0.6617100, 8.750000, null, null, null, null, null, null, null, null, 1.000000, 0.000000, 0.000000, 8.750000, 10.87000, 11.88000, 12.89000, 13.90000, 14.91000, 15.92000, 16.93000, 17.94000, 18.95000, 19.96000, 20.97000, 0, 0, 0, 1.100000, 0.9000000, 1.100000, 0.9000000, 33, 0, 0.000000, 0.000000, 0.000000, 1.000000, 0.000000, null, null, null, null, null, null, null, null, null, null, null, null, null, null, null, null, null, null, null, null, null, null, null, null, null, null, null, null, null, null, null, null, null, null, null, null, null, null, null, null, null, null, null, null, null, null, null, null, null, null, null, null], 
                [205, 206, 0, "T9", 1, 2, 1, 0.1130000E-02, -0.5200000E-03, 2, "URB TX", 1, 1, 0.1905000, 2, 0.4643000, 3, 0.1667000, 4, 0.1786000, "YNd1", null, 0.1600000E-02, 0.4800000E-01, 900.0000, null, null, null, null, null, null, null, null, 1.015910, 230.0000, 0.000000, 900.0000, 902.1200, 903.1300, 904.1400, 905.1500, 906.1600, 907.1700, 908.1800, 909.1900, 910.2000, 911.2100, 912.2200, 2, 0, 0, 1.050000, 0.9750000, -175.0000, -250.0000, 12, 0, 0.000000, 0.000000, 0.000000, 1.000000, 18.00000, null, null, null, null, null, null, null, null, null, null, null, null, null, null, null, null, null, null, null, null, null, null, null, null, null, null, null, null, null, null, null, null, null, null, null, null, null, null, null, null, null, null, null, null, null, null, null, null, null, null, null, null], 
                [205, 215, 208, "3", 1, 1, 2, 34200.00, 0.2280000E-02, 2, "THREE WDG WITH COMPLEX IMP COR FACTORS 1", 3, 2, 0.2540000, 2, 0.1746000, 3, 0.3333000, 4, 0.2381000, "YN0yn0y0", 1, 0.7529980E-03, 0.5366700E-01, 150.0000, 0.1247900E-01, 0.8735000, 20.00000, 0.2006900E-01, 1.340000, 15.00000, 0.6034500, -33.69590, 1.000000, 230.0000, 0.000000, 150.0000, 152.1200, 153.1300, 154.1400, 155.1500, 156.1600, 157.1700, 158.1800, 159.1900, 160.2000, 161.2100, 162.2200, -1, 215, 0, 1.100000, 0.9000000, 1.100000, 0.9000000, 33, 5, 0.2500000E-03, 0.6400000E-03, 0.000000, 1.000000, 18.00000, 0.000000, 20.00000, 22.12000, 23.13000, 24.14000, 25.15000, 26.16000, 27.17000, 28.18000, 29.19000, 30.20000, 31.21000, 32.22000, 0, 0, 0, 1.200000, 0.9012000, 1.100000, 0.9000000, 33, 0, 0.1200000E-03, 0.4600000E-03, 0.000000, 1.000000, 230.0000, 0.000000, 15.00000, 17.12000, 18.13000, 19.14000, 20.15000, 21.16000, 22.17000, 23.18000, 24.19000, 25.20000, 26.21000, 27.22000, 0, 0.000000, 0, 1.100000, 0.9000000, 1.100000, 0.9000000, 33, 6, 0.000000, 0, 0.000000], 
                [209, 217, 218, "4", 2, 3, 2, 41.89340, 0.9983360E-05, 2, "3WNDSTAT4", 4, 2, 0.4671000, 2, 0.1250000, 3, 0.2379000, 4, 0.1700000, "YN0yn0yn0", 0, 228000.0, 0.1000100, 30.00000, 190000.0, 0.9000000E-01, 25.00000, 266000.0, 0.7500000E-01, 35.00000, 0.9975700, -34.24100, 230.0000, 230.0000, 0.000000, 30.00000, 32.12000, 33.13000, 34.14000, 35.15000, 36.16000, 37.17000, 38.18000, 39.19000, 40.20000, 41.21000, 42.22000, -1, 0, 0, 253.0000, 207.0000, 1.100000, 0.9000000, 33, 2, 0.3100000E-03, 0.7840000E-02, 0.000000, 230.0000, 230.0000, 0.000000, 25.00000, 27.12000, 28.13000, 29.14000, 30.15000, 31.16000, 32.17000, 33.18000, 34.19000, 35.20000, 36.21000, 37.22000, -1, 217, 0, 253.0000, 207.0000, 1.100000, 0.9000000, 33, 2, 0.2100000E-03, 0.8620000E-02, 0.000000, 230.0000, 230.0000, 0.000000, 35.00000, 37.12000, 38.13000, 39.14000, 40.15000, 41.16000, 42.17000, 43.18000, 44.19000, 45.20000, 46.21000, 47.22000, -1, 0.000000, 0, 253.0000, 207.0000, 1.100000, 0.9000000, 33, 2, 0.2400000E-03, 0, 0.000000], 
                [3001, 3002, 3011, "1", 1, 1, 1, 0.1200000E-02, -0.4200000E-02, 2, "THREE WDG WITH COMPLEX IMP COR FACTORS 2", 1, 1, 0.1238000, 2, 0.2477000, 3, 0.1548000, 5, 0.4737000, "YN0yn0d1", 1, 0.1130000E-03, 0.8050000E-02, 1000.000, 0.2500000E-03, 0.1747000E-01, 1000.000, 0.3010000E-03, 0.2010000E-01, 1000.000, 0.9922500, -9.762400, 0.9988400, 230.0000, 0.000000, 1200.000, 1202.120, 1203.130, 1204.140, 1205.150, 1206.160, 1207.170, 1208.180, 1209.190, 1210.200, 1211.210, 1212.220, 1, 3002, 0, 1.100200, 0.9200000, 1.160000, 0.9300000, 33, 3, 0.1300000E-03, 0.1600000E-03, 0.000000, 1.000000, 500.0000, 0.000000, 1250.000, 1252.120, 1253.130, 1254.140, 1255.150, 1256.160, 1257.170, 1258.180, 1259.190, 1260.200, 1261.210, 1262.220, 0, 0, 0, 1.100100, 0.9000000, 1.140000, 0.9100000, 22, 0, 0.1200000E-03, 0.1500000E-03, 0.000000, 1.000000, 19.40000, 0.000000, 1280.000, 1282.120, 1283.130, 1284.140, 1285.150, 1286.160, 1287.170, 1288.180, 1289.190, 1290.200, 1291.210, 1292.220, 0, 0.000000, 0, 1.100000, 0.9100000, 1.100000, 0.9200000, 11, 4, 0.1100000E-03, 0, 0.000000], 
                [3002, 93002, 0, "W3", 1, 1, 1, 0.000000, 0.000000, 2, "WTG3XMER", 1, 5, 1.000000, 0, 1.000000, 0, 1.000000, 0, 1.000000, "YNd1", null, 0.000000, 2.027030, 3.700000, null, null, null, null, null, null, null, null, 1.000000, 0.000000, 0.000000, 3.700000, 5.820000, 6.830000, 7.840000, 8.850000, 9.860000, 10.87000, 11.88000, 12.89000, 13.90000, 14.91000, 15.92000, 0, 0, 0, 1.100000, 0.9000000, 1.100000, 0.9000000, 33, 0, 0.000000, 0.000000, 0.000000, 1.000000, 0.000000, null, null, null, null, null, null, null, null, null, null, null, null, null, null, null, null, null, null, null, null, null, null, null, null, null, null, null, null, null, null, null, null, null, null, null, null, null, null, null, null, null, null, null, null, null, null, null, null, null, null, null, null], 
                [3005, 3004, 0, "10", 1, 1, 2, 206250.0, 0.3400000E-02, 1, "WEST TX", 1, 1, 0.2645000, 2, 0.4959000, 3, 0.1157000, 4, 0.1240000, "YNa0", null, 0.3500000E-03, 0.9640000E-02, 550.0000, null, null, null, null, null, null, null, null, 1.000000, 230.0000, 0.000000, 550.0000, 552.1200, 553.1300, 554.1400, 555.1500, 556.1600, 557.1700, 558.1800, 559.1900, 560.2000, 561.2100, 562.2200, 0, 0, 0, 1.100000, 0.9000000, 1.100000, 0.9000000, 3, 0, 0.000000, 0.000000, 0.000000, 1.000000, 500.0000, null, null, null, null, null, null, null, null, null, null, null, null, null, null, null, null, null, null, null, null, null, null, null, null, null, null, null, null, null, null, null, null, null, null, null, null, null, null, null, null, null, null, null, null, null, null, null, null, null, null, null, null], 
                [3008, 3018, 0, "11", 2, 1, 2, 196875.0, 0.3500000E-02, 2, "CATDOG_XMER", 1, 1, 0.2051000, 2, 0.2500000, 3, 0.4487000, 4, 0.9620000E-01, "YNa0", null, 0.4400000E-03, 0.1276000E-01, 525.0000, null, null, null, null, null, null, null, null, 230.0000, 230.0000, 0.000000, 525.0000, 527.1200, 528.1300, 529.1400, 530.1500, 531.1600, 532.1700, 533.1800, 534.1900, 535.2000, 536.2100, 537.2200, 0, 0, 0, 1.100000, 0.9000000, 1.100000, 0.9000000, 22, 2, 0.000000, 0.000000, 0.000000, 13.80000, 13.80000, null, null, null, null, null, null, null, null, null, null, null, null, null, null, null, null, null, null, null, null, null, null, null, null, null, null, null, null, null, null, null, null, null, null, null, null, null, null, null, null, null, null, null, null, null, null, null, null, null, null, null, null], 
                [3008, 3012, 3010, "2", 2, 1, 1, 0.2100000E-03, -0.1200000E-03, 1, "3WNDSTAT2", 2, 5, 0.8000000, 3, 0.5000000E-01, 2, 0.1000000, 1, 0.5000000E-01, "D1y0y0", 0, 0.5150000E-02, 0.5000000, 20.00000, 0.9200000E-02, 0.8000000, 15.00000, 0.3750000E-02, 0.4166700, 25.00000, 0.9862500, -27.38570, 230.0000, 230.0000, 0.000000, 20.00000, 22.12000, 23.13000, 24.14000, 25.15000, 26.16000, 27.17000, 28.18000, 29.19000, 30.20000, 31.21000, 32.22000, 0, 0, 0, 1.100000, 0.9000000, 1.100000, 0.9000000, 33, 0, 0.000000, 0.000000, 0.000000, 230.0000, 230.0000, 0.000000, 15.00000, 17.12000, 18.13000, 19.14000, 20.15000, 21.16000, 22.17000, 23.18000, 24.19000, 25.20000, 26.21000, 27.22000, 0, 0, 0, 1.100000, 0.9000000, 1.100000, 0.9000000, 33, 0, 0.000000, 0.000000, 0.000000, 21.60000, 21.60000, 30.00000, 25.00000, 27.12000, 28.13000, 29.14000, 30.15000, 31.16000, 32.17000, 33.18000, 34.19000, 35.20000, 36.21000, 37.22000, 0, 0.000000, 0, 1.100000, 0.9000000, 1.100000, 0.9000000, 33, 0, 0.000000, 0, 0.000000]
            ]
        }, 
        "area":{
            "fields":["iarea", "isw", "pdes", "ptol", "arname"], 
            "data":[
                [1, 101, -2800.000, 10.00000, "CENTRAL"], 
                [2, 206, -1600.000, 10.00000, "EAST"], 
                [3, 301, 2900.000, 55.00000, "CENTRAL_DC"], 
                [4, 401, 300.0000, 15.00000, "EAST_COGEN1"], 
                [5, 3011, 900.0000, 10.00000, "WEST"], 
                [6, 402, 300.0000, 20.00000, "EAST_COGEN2"]
            ]
        }, 
        "twotermdc":{
            "fields":["name", "mdc", "rdc", "setvl", "vschd", "vcmod", "rcomp", "delti", "met", "dcvmin", "cccitmx", "cccacc", "ipr", "nbr", "anmxr", "anmnr", "rcr", "xcr", "ebasr", "trr", "tapr", "tmxr", "tmnr", "stpr", "icr", "ndr", "ifr", "itr", "idr", "xcapr", "ipi", "nbi", "anmxi", "anmni", "rci", "xci", "ebasi", "tri", "tapi", "tmxi", "tmni", "stpi", "ici", "ndi", "ifi", "iti", "idi", "xcapi"], 
            "data":[
                ["TWO_TERM_DC1", 1, 7.854300, 1490.650, 525.0000, 400.0000, 3.942000, 0.1556000, "I", 0.000000, 20, 1.000000, 301, 2, 13.00000, 7.500000, 0.1110000E-01, 3.880000, 500.0000, 0.4400000, 1.062750, 1.100000, 0.9000000, 0.5250000E-02, 0, 0, 0, 0, "1", 2.003400, 3021, 2, 21.00000, 18.50000, 0.000000, 3.047000, 230.0000, 0.9565200, 1.075000, 1.100000, 0.8000000, 0.6250000E-02, 0, 0, 152, 3021, "T4", 2.000000], 
                ["TWO_TERM_DC2", 1, 8.200000, 1500.000, 525.0000, 400.0000, 4.100000, 0.1500000, "I", 0.000000, 20, 1.000000, 301, 2, 12.00000, 8.000000, 0.1100000E-01, 3.880000, 500.0000, 0.4400000, 1.054500, 1.112000, 0.9000000, 0.5150000E-02, 0, 0, 0, 0, "1", 0.9800000E-02, 3022, 2, 20.00000, 18.00000, 0.1200000E-01, 3.047000, 230.0000, 0.9565200, 1.062500, 1.100000, 0.8000000, 0.6250000E-02, 0, 0, 152, 3022, "T5", 0.7400000E-02]
            ]
        }, 
        "vscdc":{
            "fields":["name", "mdc", "rdc", "o1", "f1", "o2", "f2", "o3", "f3", "o4", "f4", "ibus1", "type1", "mode1", "dcset1", "acset1", "aloss1", "bloss1", "minloss1", "smax1", "imax1", "pwf1", "maxq1", "minq1", "vsreg1", "nreg1", "rmpct1", "ibus2", "type2", "mode2", "dcset2", "acset2", "aloss2", "bloss2", "minloss2", "smax2", "imax2", "pwf2", "maxq2", "minq2", "vsreg2", "nreg2", "rmpct2"], 
            "data":[
                ["VDCLINE1", 1, 0.7100000, 1, 0.3204000, 2, 0.3883000, 3, 0.1942000, 4, 0.9710000E-01, 3005, 2, 2, -209.0000, 0.9500000, 100.0000, 0.1000000, 50.00000, 400.0000, 1200.000, 0.1000000, 100.0000, -110.0000, 3005, 0, 100.0000, 3008, 1, 1, 100.0000, 0.9900000, 90.00000, 0.1500000, 40.00000, 350.0000, 1200.000, 0.1500000, 150.0000, -140.0000, 3008, 0, 100.0000], 
                ["VDCLINE2", 1, 0.3500000, 1, 0.3705000, 2, 0.3597000, 3, 0.1799000, 4, 0.8990000E-01, 203, 2, 1, -100.0000, 1.000000, 100.0000, 0.1500000, 123.0000, 200.0000, 1200.000, 1.000000, 200.0000, -150.0000, 203, 0, 100.0000, 205, 1, 1, 100.0000, 1.000000, 93.00000, 0.1200000, 98.00000, 250.0000, 1250.000, 1.000000, 225.0000, -250.0000, 205, 0, 99.00000]
            ]
        }, 
        "impcor":{
            "fields":["itable", "tap", "refact", "imfact"], 
            "data":[
                [1, -30.00000, 1.100000, 0.000000], 
                [1, -24.00000, 1.091000, 0.000000], 
                [1, -18.00000, 1.084000, 0.000000], 
                [1, -12.00000, 1.063000, 0.000000], 
                [1, -6.000000, 1.032000, 0.000000], 
                [1, 0.000000, 1.000000, 0.000000], 
                [1, 6.000000, 1.030000, 0.000000], 
                [1, 12.00000, 1.060000, 0.000000], 
                [1, 18.00000, 1.080000, 0.000000], 
                [1, 24.00000, 1.090000, 0.000000], 
                [1, 30.00000, 1.110000, 0.000000], 
                [2, 0.6000000, 1.060000, 0.000000], 
                [2, 0.7000000, 1.050000, 0.000000], 
                [2, 0.8000000, 1.040000, 0.000000], 
                [2, 0.9000000, 1.030000, 0.000000], 
                [2, 0.9500000, 1.020000, 0.000000], 
                [2, 1.000000, 1.010000, 0.000000], 
                [2, 1.050000, 0.9900000, 0.000000], 
                [2, 1.100000, 0.9800000, 0.000000], 
                [2, 1.200000, 0.9700000, 0.000000], 
                [2, 1.300000, 0.9600000, 0.000000], 
                [2, 1.400000, 0.9500000, 0.000000], 
                [3, 0.9500000, 1.006200, 0.5800000E-03], 
                [3, 1.000000, 1.000000, 0.000000], 
                [3, 1.050000, 0.9900600, 0.1100000E-03], 
                [4, 0.9500000, 0.9696400, 0.5400000E-03], 
                [4, 1.000000, 1.000000, 0.000000], 
                [4, 1.050000, 1.024860, 0.7700000E-03], 
                [5, 0.9400000, 1.006200, 0.5800000E-03], 
                [5, 1.000000, 1.000000, 0.000000], 
                [5, 1.060000, 0.9900600, 0.1100000E-03], 
                [6, 0.9400000, 0.9696400, 0.5400000E-03], 
                [6, 1.000000, 1.000000, 0.000000], 
                [6, 1.060000, 1.024860, 0.7700000E-03]
            ]
        }, 
        "ntermdc":{
            "fields":["name", "nconv", "ndcbs", "ndcln", "mdc", "vconv", "vcmod", "vconvn"], 
            "data":[
                ["MULTERM_DC_1", 4, 5, 4, 1, 212, 400.0000, 0]
            ]
        }, 
        "ntermdcconv":{
            "fields":["name", "ib", "nbrdg", "angmx", "angmn", "rc", "xc", "ebas", "tr", "tap", "tpmx", "tpmn", "tstp", "setvl", "dcpf", "marg", "cnvcod"], 
            "data":[
                ["MULTERM_DC_1", 402, 4, 10.00000, 8.000000, 0.000000, 19.00000, 500.0000, 0.2200000, 1.010000, 1.100000, 0.9700000, 0.1000000E-01, 321.0000, 1.000000, 0.1500000, 3], 
                ["MULTERM_DC_1", 401, 4, 10.00000, 8.000000, 0.000000, 19.00000, 500.0000, 0.2200000, 1.010000, 1.100000, 0.9700000, 0.1000000E-01, 321.0000, 1.000000, 0.1500000, 3], 
                ["MULTERM_DC_1", 212, 4, 20.00000, 18.00000, 0.000000, 10.00000, 230.0000, 0.4520000, 1.040000, 1.100000, 0.9000000, 0.1000000E-01, 500.0000, 1.000000, 0.000000, 1], 
                ["MULTERM_DC_1", 213, 4, 20.00000, 18.00000, 0.000000, 10.00000, 230.0000, 0.4520000, 1.100000, 1.100000, 0.9000000, 0.1000000E-01, -303.8000, 1.000000, 0.000000, 4]
            ]
        }, 
        "ntermdcbus":{
            "fields":["name", "idc", "ib", "area", "zone", "dcname", "idc2", "rgrnd", "owner"], 
            "data":[
                ["MULTERM_DC_1", 1, 401, 4, 4, "DC1", 0, 0.000000, 4], 
                ["MULTERM_DC_1", 2, 212, 2, 2, "DC2", 0, 0.000000, 2], 
                ["MULTERM_DC_1", 3, 402, 4, 4, "DC3", 0, 0.000000, 4], 
                ["MULTERM_DC_1", 4, 213, 2, 2, "DC4", 0, 0.000000, 2], 
                ["MULTERM_DC_1", 5, 0, 4, 4, "DC5", 0, 0.000000, 4]
            ]
        }, 
        "ntermdclink":{
            "fields":["name", "idc", "jdc", "dcckt", "met", "rdc", "ldc"], 
            "data":[
                ["MULTERM_DC_1", 1, 5, "1", 1, 29.00000, 0.000000], 
                ["MULTERM_DC_1", 2, 5, "1", 1, 29.00000, 0.000000], 
                ["MULTERM_DC_1", 3, 5, "1", 1, 29.00000, 0.000000], 
                ["MULTERM_DC_1", 4, 5, "1", 1, 29.00000, 0.000000]
            ]
        }, 
        "msline":{
            "fields":["ibus", "jbus", "mslid", "met", "dum1", "dum2", "dum3", "dum4", "dum5", "dum6", "dum7", "dum8", "dum9"], 
            "data":[
                [201, 204, "&1", 2, 207, null, null, null, null, null, null, null, null]
            ]
        }, 
        "zone":{
            "fields":["izone", "zoname"], 
            "data":[
                [1, "NORTH_A1"], 
                [2, "MID_A1_A2_A5"], 
                [3, "DISCNT_IN_A1"], 
                [4, "SOUTH_A1_A5"], 
                [5, "ALL_A3"], 
                [6, "NORTH_A5"], 
                [7, "NORTH_A2"], 
                [8, "SOUTH_A2"], 
                [9, "ALL_A4_A6"]
            ]
        }, 
        "iatrans":{
            "fields":["arfrom", "arto", "trid", "ptran"], 
            "data":[
                [1, 2, "A", 1000.000], 
                [1, 5, "B", -3800.000], 
                [2, 4, "C", -300.0000], 
                [2, 6, "E", -300.0000], 
                [3, 5, "D", 2900.000]
            ]
        }, 
        "owner":{
            "fields":["iowner", "owname"], 
            "data":[
                [1, "OWNER 1"], 
                [2, "OWNER 2"], 
                [3, "OWNER 3"], 
                [4, "OWNER 4"], 
                [5, "OWNER 5"]
            ]
        }, 
        "facts":{
            "fields":["name", "ibus", "jbus", "mode", "pdes", "qdes", "vset", "shmx", "trmx", "vtmn", "vtmx", "vsmx", "imx", "linx", "rmpct", "owner", "set1", "set2", "vsref", "fcreg", "nreg", "mname"], 
            "data":[
                ["FACTS_DVCE_1", 153, 0, 1, 0.000000, 0.000000, 1.015000, 50.00000, 100.0000, 0.9263000, 1.134000, 1.000000, 0.000000, 0.5652000E-01, 100.0000, 1, 0.000000, 0.000000, 0, 153, 0, ""], 
                ["FACTS_DVCE_2", 153, 155, 1, 350.0000, 40.00000, 1.015000, 25.00000, 9999.000, 0.9000000, 1.100000, 1.000000, 0.000000, 0.5000000E-01, 100.0000, 1, 0.000000, 0.000000, 0, 153, 0, ""]
            ]
        }, 
        "swshunt":{
            "fields":["ibus", "shntid", "modsw", "adjm", "stat", "vswhi", "vswlo", "swreg", "nreg", "rmpct", "rmidnt", "binit", "s1", "n1", "b1", "s2", "n2", "b2", "s3", "n3", "b3", "s4", "n4", "b4", "s5", "n5", "b5", "s6", "n6", "b6", "s7", "n7", "b7", "s8", "n8", "b8"], 
            "data":[
                [152, "1", 1, 0, 1, 1.045000, 0.9550000, 152, 0, 100.0000, "", -115.0000, 1, 1, -15.00000, 1, 2, -5.000000, 1, 3, -10.00000, 1, 4, -8.000000, 1, 5, -7.000000, 1, 6, -5.000000, 1, 7, -7.000000, 1, 8, -4.000000], 
                [152, "2", 1, 0, 1, 1.045000, 0.9550000, 152, 0, 100.0000, "", -115.0000, 1, 1, -15.00000, 1, 2, -5.000000, 1, 3, -10.00000, 1, 4, -8.000000, 1, 5, -7.000000, 1, 6, -5.000000, 1, 7, -7.000000, 1, 8, -4.000000], 
                [154, "1", 1, 0, 1, 1.044800, 0.9650000, 154, 0, 100.0000, "", 124.0000, 1, 1, 25.00000, 1, 2, 10.00000, 1, 2, 15.00000, 1, 1, 15.00000, 1, 2, 5.000000, 1, 3, 3.000000, 1, 2, 4.000000, 1, 1, 7.000000], 
                [3005, "1", 4, 0, 1, 0.9800000, 0.6400000, 3005, 0, 100.0000, "VDCLINE1", 0.000000, 1, 1, 33.35000, null, null, null, null, null, null, null, null, null, null, null, null, null, null, null, null, null, null, null, null, null], 
                [3021, "1", 2, 0, 1, 1.000000, 1.000000, 3021, 0, 100.0000, "", 245.6400, 1, 2, 100.0000, 1, 1, 50.00000, 1, 2, 25.00000, 1, 4, 12.50000, null, null, null, null, null, null, null, null, null, null, null, null], 
                [3021, "2", 2, 0, 1, 1.000000, 1.000000, 3021, 0, 100.0000, "", 245.6400, 1, 2, 100.0000, 1, 1, 50.00000, 1, 2, 25.00000, 1, 4, 12.50000, null, null, null, null, null, null, null, null, null, null, null, null], 
                [3022, "1", 2, 0, 1, 1.000000, 1.000000, 3022, 0, 100.0000, "", 296.2700, 1, 4, 50.00000, 1, 2, 25.00000, 1, 4, 12.50000, 1, 3, 10.00000, 1, 2, 10.00000, null, null, null, null, null, null, null, null, null], 
                [3022, "2", 2, 0, 1, 1.000000, 1.000000, 3022, 0, 100.0000, "", 296.2700, 1, 4, 50.00000, 1, 2, 25.00000, 1, 4, 12.50000, 1, 3, 10.00000, 1, 2, 10.00000, null, null, null, null, null, null, null, null, null], 
                [93002, "1", 1, 0, 1, 0.9962800, 0.9962800, 93002, 0, 100.0000, "", 1.440000, 1, 1, 1.440000, null, null, null, null, null, null, null, null, null, null, null, null, null, null, null, null, null, null, null, null, null]
            ]
        }, 
        "gne":{
            "fields":["name", "model", "nterm", "bus1", "bus2", "nreal", "nintg", "nchar", "stat", "owner", "nmet", "real1", "real2", "real3", "real4", "real5", "real6", "real7", "real8", "real9", "real10", "intg1", "intg2", "intg3", "intg4", "intg5", "intg6", "intg7", "intg8", "intg9", "intg10", "char1", "char2", "char3", "char4", "char5", "char6", "char7", "char8", "char9", "char10"], 
            "data":[]
        }, 
        "indmach":{
            "fields":["ibus", "imid", "stat", "sc", "dc", "area", "zone", "owner", "tc", "bc", "mbase", "ratekv", "pcode", "pset", "hconst", "aconst", "bconst", "dconst", "econst", "ra", "xa", "xm", "r1", "x1", "r2", "x2", "x3", "e1", "se1", "e2", "se2", "ia1", "ia2", "xamult"], 
            "data":[
                [3010, "1", 1, 1, 2, 5, 4, 5, 1, 1, 1.000000, 21.60000, 1, 1.000000, 1.000000, 1.000000, 1.000000, 1.000000, 1.000000, null, null, null, null, null, null, null, null, null, null, null, null, null, null, null], 
                [9154, "1", 1, 1, 2, 1, 3, 1, 1, 2, 2.270000, 4.160000, 2, -2.000000, 1.000000, 1.000000, 1.000000, -1.000000, 1.000000, null, null, null, null, null, null, null, null, null, null, null, null, null, null, null], 
                [9204, "1", 1, 1, 2, 2, 8, 2, 1, 1, 10.00000, 0.5750000, 1, 10.00000, 1.000000, 1.000000, 1.000000, 1.000000, 1.000000, null, null, null, null, null, null, null, null, null, null, null, null, null, null, null], 
                [93002, "1", 1, 1, 2, 5, 6, 5, 1, 2, 5.620000, 0.6900000, 2, -5.000000, 1.000000, 1.000000, 1.000000, -1.000000, 1.000000, null, null, null, null, null, null, null, null, null, null, null, null, null, null, null]
            ]
        }, 
        "sub":{
            "fields":["isub", "name", "lati", "long", "srg"], 
            "data":[]
        }, 
        "subnode":{
            "fields":["isub", "inode", "name", "ibus", "stat", "vm", "va"], 
            "data":[]
        }, 
        "subswd":{
            "fields":["isub", "inode", "jnode", "swdid", "name", "type", "stat", "nstat", "xpu", "rate1", "rate2", "rate3"], 
            "data":[]
        }, 
        "subterm":{
            "fields":["isub", "inode", "type", "eqid", "ibus", "jbus", "kbus"], 
            "data":[]
        }
    }, 
    "timeseries":{}, 
    "harmonics":{}
}
